86

C          32.2310000000    -0.3410000000     7.4940000000
H          31.2385773027     0.0369695877     7.8194029095
H          32.2560770597    -0.3926224951     6.3847853535
N          34.5720000000     0.5910000000     7.4780000000
H          34.9134420847    -0.0624040349     6.8025556445
C          33.2760000000     0.6280000000     7.9450000000
C          35.2740000000     1.5450000000     8.0610000000
H          36.3285280529     1.7406723228     7.8706552051
N          34.4800000000     2.1970000000     8.8930000000
C          33.2270000000     1.6380000000     8.8440000000
H          32.4167850902     2.0137540761     9.4559769981
FE          35.0500000000     3.7720000000    10.190000000
N          37.0330000000     3.5630000000     9.6040000000
N          34.8330000000     5.2360000000     8.7120000000
N          33.1140000000     4.1830000000    10.8100000000
N          35.3390000000     2.4850000000    11.7680000000
C          37.9310000000     2.6790000000    10.1650000000
C          39.1450000000     2.6980000000     9.3650000000
C          38.9610000000     3.5680000000     8.3600000000
C          37.6310000000     4.1260000000     8.4930000000
C          35.7600000000     5.5330000000     7.7310000000
C          35.1400000000     6.4330000000     6.7810000000
C          33.8860000000     6.6640000000     7.1910000000
C          33.6660000000     5.9160000000     8.4140000000
C          32.2840000000     5.1720000000    10.3180000000
C          31.1620000000     5.3180000000    11.2310000000
C          31.3280000000     4.4370000000    12.2360000000
C          32.5580000000     3.7090000000    11.9810000000
C          34.3920000000     2.2570000000    12.7650000000
C          34.9970000000     1.4580000000    13.8080000000
C          36.4360000000     1.2160000000    13.3450000000
C          36.5610000000     1.8910000000    12.0710000000
C          37.7020000000     1.9210000000    11.2930000000
H          38.5163796135     1.2690074457    11.6080143337
C          37.0550000000     5.0610000000     7.6610000000
H          37.6840841438     5.4680511583     6.8694769743
C          32.5020000000     5.8860000000     9.1560000000
H          31.6707392659     6.4867966872     8.7872904253
C          33.0900000000     2.7100000000    12.7680000000
H          32.4082361254     2.2265584576    13.4674807207
C          39.9730000000     3.9320000000     7.2460000000
H          39.8346873908     3.2481299216     6.3814120415
H          41.0096325522     3.8220168642     7.6300773566
H          39.8014473613     4.9768957774     6.9098731477
C          40.4150000000     1.8500000000     9.6370000000
H          40.3998583467     1.5096179641    10.6943429874
H          41.3122325484     2.4835851385     9.4708463980
C          40.4780000000     0.6290000000     8.7120000000
H          41.2893162949    -0.0463873547     9.0576410535
H          40.7015306148     0.9683176167     7.6781975206
C          39.1800000000    -0.1460000000     8.6950000000
O          38.4770000000    -0.1200000000     7.6480000000
O          38.8460000000    -0.7940000000     9.7230000000
C          35.8370000000     7.0090000000     5.5240000000
H          36.4599463504     6.2199802901     5.0510235291
H          36.4910852693     7.8589426934     5.8138079239
H          35.0722569266     7.3501224702     4.7939162744
C          32.8450000000     7.5660000000     6.4920000000
H          31.9452102760     7.1397970825     6.0248382803
C          33.0360000000     8.8900000000     6.4510000000
H          33.9281446145     9.3398833309     6.9110901819
H          32.3032084423     9.5447420470     5.9567031410
C          30.0020000000     6.3280000000    11.0450000000
H          29.0696464690     5.7794294958    10.7918038406
H          30.2436112030     7.0288565791    10.2175685307
H          29.8423228654     6.8939320834    11.9875724609
C          30.4220000000     4.1800000000    13.4720000000
H          30.7142429456     3.4003251464    14.1904580883
C          29.2910000000     4.8490000000    13.7330000000
H          28.9418911212     5.6414597976    13.0546708321
H          28.6974795949     4.6141166754    14.6288590026
C          34.3360000000     0.9570000000    15.1130000000
H          33.7196221572     0.0586554672    14.8953386683
H          33.6806867444     1.7509680962    15.5306098103
H          35.1207782968     0.6852777044    15.8509083773
C          37.5260000000     0.4290000000    14.1010000000
H          38.3024988179     0.0772754089    13.3885518732
H          37.0748299850    -0.4489445959    14.6108056881
C          38.1360000000     1.3820000000    15.1240000000
H          37.3446249720     1.7611648507    15.8053647653
H          38.6107175831     2.2410174747    14.6033940483
C          39.1750000000     0.6470000000    15.9250000000
O          40.3750000000     0.7250000000    15.5590000000
O          38.7980000000    -0.0190000000    16.9230000000
H       35.38962495  4.7968223  11.53925042
H       35.55630498  5.25738635 10.90671701
